target
  PyMOL2.1          3D                             0

 13 13  0  0  0  0  0  0  0  0999 V2000
    9.9480   -5.5000   26.1430 C   0  0  0  0  0  0  0  0  0  0  0  0
    8.5480   -4.3440   26.0430 S   0  0  0  0  0  0  0  0  0  0  0  0
    7.2600   -5.0210   26.2070 O   0  0  0  0  0  0  0  0  0  0  0  0
    8.5070   -3.4460   27.1870 O   0  0  0  0  0  0  0  0  0  0  0  0
    8.5620   -3.5000   24.5670 N   0  0  0  0  0  0  0  0  0  0  0  0
    9.8190   -3.0370   24.0300 C   0  0  0  0  0  0  0  0  0  0  0  0
    9.6310   -1.8280   23.1240 C   0  0  0  0  0  0  0  0  0  0  0  0
   10.9400   -1.0530   23.1140 C   0  0  0  0  0  0  0  0  0  0  0  0
   11.9680   -1.4640   22.2830 C   0  0  0  0  0  0  0  0  0  0  0  0
   13.1680   -0.7830   22.2830 C   0  0  0  0  0  0  0  0  0  0  0  0
   13.3420    0.3130   23.1150 C   0  0  0  0  0  0  0  0  0  0  0  0
   12.3090    0.7280   23.9490 C   0  0  0  0  0  0  0  0  0  0  0  0
   11.1060    0.0370   23.9530 C   0  0  0  0  0  0  0  0  0  0  0  0
  1  2  1  0  0  0  0
  2  3  2  0  0  0  0
  2  4  2  0  0  0  0
  2  5  1  0  0  0  0
  5  6  1  0  0  0  0
  6  7  1  0  0  0  0
  7  8  1  0  0  0  0
  8  9  4  0  0  0  0
  9 10  4  0  0  0  0
 10 11  4  0  0  0  0
 11 12  4  0  0  0  0
  8 13  4  0  0  0  0
 12 13  4  0  0  0  0
M  END
$$$$
