target
  PyMOL3.1          3D                             0

 16 17  0  0  0  0  0  0  0  0999 V2000
    9.1852    6.1013   22.6414 C   0  0  0  0  0  0  0  0  0  0  0  0
   11.6174    5.2669   22.6831 N   0  0  0  0  0  0  0  0  0  0  0  0
   10.5173    5.9812   24.5659 O   0  0  0  0  0  0  0  0  0  0  0  0
   10.4702    5.7961   23.4014 C   0  0  0  0  0  0  0  0  0  0  0  0
   10.5410    1.4161   24.3600 N   0  0  0  0  0  0  0  0  0  0  0  0
   12.8619    4.9301   23.3472 C   0  0  0  0  0  0  0  0  0  0  0  0
   13.2367    3.5037   22.9394 C   0  0  0  0  0  0  0  0  0  0  0  0
   12.2510    2.4179   23.4021 C   0  0  0  0  0  0  0  0  0  0  0  0
   11.1312    2.5927   24.1987 C   0  0  0  0  0  0  0  0  0  0  0  0
   11.2295    0.4437   23.6963 C   0  0  0  0  0  0  0  0  0  0  0  0
   12.3103    1.0362   23.0881 C   0  0  0  0  0  0  0  0  0  0  0  0
   13.2022    0.2372   22.3230 C   0  0  0  0  0  0  0  0  0  0  0  0
   12.9775   -1.1322   22.1896 C   0  0  0  0  0  0  0  0  0  0  0  0
   11.8767   -1.7277   22.8149 C   0  0  0  0  0  0  0  0  0  0  0  0
   10.9997   -0.9517   23.5678 C   0  0  0  0  0  0  0  0  0  0  0  0
   13.8405   -1.8852   21.4509 F   0  0  0  0  0  0  0  0  0  0  0  0
  1  4  1  0  0  0  0
  2  4  1  0  0  0  0
  2  6  1  0  0  0  0
  3  4  2  0  0  0  0
  6  7  1  0  0  0  0
  7  8  1  0  0  0  0
  8  9  4  0  0  0  0
  8 11  4  0  0  0  0
  5  9  4  0  0  0  0
  5 10  4  0  0  0  0
 10 11  4  0  0  0  0
 10 15  4  0  0  0  0
 11 12  4  0  0  0  0
 12 13  4  0  0  0  0
 13 14  4  0  0  0  0
 13 16  1  0  0  0  0
 14 15  4  0  0  0  0
M  END
$$$$
