target
  PyMOL3.1          3D                             0

 14 14  0  0  0  0  0  0  0  0999 V2000
   13.7965   -2.5469   24.2454 C   0  0  0  0  0  0  0  0  0  0  0  0
   13.3133   -1.2513   24.5060 O   0  0  0  0  0  0  0  0  0  0  0  0
   13.4284   -0.3115   23.4721 C   0  0  0  0  0  0  0  0  0  0  0  0
   14.1192   -0.5219   22.5378 O   0  0  0  0  0  0  0  0  0  0  0  0
   12.6736    1.0125   23.5671 C   0  0  0  0  0  0  0  0  0  0  0  0
   11.4594    1.0807   24.2360 C   0  0  0  0  0  0  0  0  0  0  0  0
   10.7874    2.2922   24.3256 C   0  0  0  0  0  0  0  0  0  0  0  0
   11.3368    3.4285   23.7414 C   0  0  0  0  0  0  0  0  0  0  0  0
   12.5510    3.3572   23.0724 C   0  0  0  0  0  0  0  0  0  0  0  0
   13.2169    2.1497   22.9897 C   0  0  0  0  0  0  0  0  0  0  0  0
   10.4781    5.0177   23.8516 S   0  0  0  0  0  0  0  0  0  0  0  0
   11.3529    6.1219   23.4435 O   0  0  0  0  0  0  0  0  0  0  0  0
   10.1989    5.3444   25.2512 O   0  0  0  0  0  0  0  0  0  0  0  0
    9.0505    5.0012   22.9142 N   0  0  0  0  0  0  0  0  0  0  0  0
  1  2  1  0  0  0  0
  2  3  1  0  0  0  0
  3  4  2  0  0  0  0
  3  5  1  0  0  0  0
  5  6  4  0  0  0  0
  6  7  4  0  0  0  0
  7  8  4  0  0  0  0
  8  9  4  0  0  0  0
  8 11  1  0  0  0  0
  5 10  4  0  0  0  0
  9 10  4  0  0  0  0
 11 12  2  0  0  0  0
 11 13  2  0  0  0  0
 11 14  1  0  0  0  0
M  END
$$$$
