target
  PyMOL2.1          3D                             0

 15 16  0  0  0  0  0  0  0  0999 V2000
   10.0015   -0.5220   25.0692 C   0  0  0  0  0  0  0  0  0  0  0  0
   11.2149   -0.5030   24.2811 N   0  0  0  0  0  0  0  0  0  0  0  0
   11.5358   -1.6922   23.5442 C   0  0  0  0  0  0  0  0  0  0  0  0
   12.7563   -1.6469   22.6522 C   0  0  0  0  0  0  0  0  0  0  0  0
   13.7317   -0.5197   22.9417 C   0  0  0  0  0  0  0  0  0  0  0  0
   12.9839    0.8273   23.1680 C   0  0  0  0  0  0  0  0  0  0  0  0
   13.5386    2.0410   22.7098 C   0  0  0  0  0  0  0  0  0  0  0  0
   12.8517    3.2377   22.9151 C   0  0  0  0  0  0  0  0  0  0  0  0
   11.6063    3.1997   23.5805 C   0  0  0  0  0  0  0  0  0  0  0  0
   11.0506    2.0030   24.0357 C   0  0  0  0  0  0  0  0  0  0  0  0
   11.7467    0.7934   23.8256 C   0  0  0  0  0  0  0  0  0  0  0  0
   10.6781    4.7128   23.8810 S   0  0  0  0  0  0  0  0  0  0  0  0
   10.2320    4.6831   25.2750 O   0  0  0  0  0  0  0  0  0  0  0  0
    9.3996    4.6877   23.1563 O   0  0  0  0  0  0  0  0  0  0  0  0
   11.6325    6.0783   23.5055 N   0  0  0  0  0  0  0  0  0  0  0  0
  1  2  1  0  0  0  0
  2  3  1  0  0  0  0
  3  4  1  0  0  0  0
  4  5  1  0  0  0  0
  5  6  1  0  0  0  0
  6  7  4  0  0  0  0
  6 11  4  0  0  0  0
  7  8  4  0  0  0  0
  8  9  4  0  0  0  0
  9 12  1  0  0  0  0
  9 10  4  0  0  0  0
 10 11  4  0  0  0  0
  2 11  1  0  0  0  0
 12 13  2  0  0  0  0
 12 14  2  0  0  0  0
 12 15  1  0  0  0  0
M  END
$$$$
