target
  PyMOL2.1          3D                             0

 11 11  0  0  0  0  0  0  0  0999 V2000
    9.0161   -0.0370   27.7721 C   0  0  0  0  0  0  0  0  0  0  0  0
    9.1350   -0.5083   26.3305 C   0  0  0  0  0  0  0  0  0  0  0  0
   10.2030    0.2472   25.7112 N   0  0  0  0  0  0  0  0  0  0  0  0
   10.9979   -0.2558   24.6139 C   0  0  0  0  0  0  0  0  0  0  0  0
   10.6362   -1.3931   23.9022 C   0  0  0  0  0  0  0  0  0  0  0  0
   11.4272   -1.8221   22.8470 C   0  0  0  0  0  0  0  0  0  0  0  0
   12.5669   -1.0908   22.5314 C   0  0  0  0  0  0  0  0  0  0  0  0
   13.4837   -1.5199   21.3929 C   0  0  0  0  0  0  0  0  0  0  0  0
   14.1733   -1.8249   20.5389 N   0  0  0  0  0  0  0  0  0  0  0  0
   12.8617    0.0356   23.2873 C   0  0  0  0  0  0  0  0  0  0  0  0
   12.0815    0.4206   24.2915 N   0  0  0  0  0  0  0  0  0  0  0  0
  1  2  1  0  0  0  0
  2  3  1  0  0  0  0
  3  4  1  0  0  0  0
  4  5  4  0  0  0  0
  4 11  4  0  0  0  0
  5  6  4  0  0  0  0
  6  7  4  0  0  0  0
  7  8  1  0  0  0  0
  8  9  3  0  0  0  0
  7 10  4  0  0  0  0
 10 11  4  0  0  0  0
M  END
$$$$
