target
  PyMOL3.1          3D                             0

 16 17  0  0  0  0  0  0  0  0999 V2000
    9.4094   -1.0606   22.3873 N   0  0  0  0  0  0  0  0  0  0  0  0
    8.7649   -0.3230   21.3283 C   0  0  0  0  0  0  0  0  0  0  0  0
    9.3168    0.5969   20.8206 O   0  0  0  0  0  0  0  0  0  0  0  0
   10.6997   -0.5896   22.7858 C   0  0  0  0  0  0  0  0  0  0  0  0
    7.4526   -0.7409   20.9042 N   0  0  0  0  0  0  0  0  0  0  0  0
   11.8380   -0.9026   22.0685 C   0  0  0  0  0  0  0  0  0  0  0  0
    6.6617    0.6271   17.6257 N   0  0  0  0  0  0  0  0  0  0  0  0
   13.0544   -0.3975   22.4846 C   0  0  0  0  0  0  0  0  0  0  0  0
   13.1093    0.4268   23.5952 C   0  0  0  0  0  0  0  0  0  0  0  0
   11.9559    0.7400   24.3006 C   0  0  0  0  0  0  0  0  0  0  0  0
   10.7466    0.2348   23.8914 C   0  0  0  0  0  0  0  0  0  0  0  0
    6.7670   -0.0443   19.8492 C   0  0  0  0  0  0  0  0  0  0  0  0
    5.5659    0.5814   20.1437 C   0  0  0  0  0  0  0  0  0  0  0  0
    4.9313    1.2488   19.1082 C   0  0  0  0  0  0  0  0  0  0  0  0
    5.5151    1.2241   17.8467 C   0  0  0  0  0  0  0  0  0  0  0  0
    7.2998   -0.0088   18.5724 C   0  0  0  0  0  0  0  0  0  0  0  0
  1  2  1  0  0  0  0
  1  4  1  0  0  0  0
  2  3  2  0  0  0  0
  4  6  4  0  0  0  0
  2  5  1  0  0  0  0
  5 12  1  0  0  0  0
  6  8  4  0  0  0  0
  8  9  4  0  0  0  0
  9 10  4  0  0  0  0
 10 11  4  0  0  0  0
  4 11  4  0  0  0  0
 12 13  4  0  0  0  0
 12 16  4  0  0  0  0
 13 14  4  0  0  0  0
  7 15  4  0  0  0  0
 14 15  4  0  0  0  0
  7 16  4  0  0  0  0
M  END
$$$$
