target
  PyMOL3.1          3D                             0

 18 19  0  0  0  0  0  0  0  0999 V2000
   23.8838  -16.7138   25.7799 N   0  0  0  0  0  0  0  0  0  0  0  0
   24.6744  -17.8396   25.2968 C   0  0  0  0  0  0  0  0  0  0  0  0
   25.7632  -17.9821   25.7329 O   0  0  0  0  0  0  0  0  0  0  0  0
   24.1564  -18.8778   24.2895 C   0  0  0  0  0  0  0  0  0  0  0  0
   24.8987  -18.9081   23.0096 C   0  0  0  0  0  0  0  0  0  0  0  0
   24.4988  -20.1279   22.1720 C   0  0  0  0  0  0  0  0  0  0  0  0
   23.0970  -20.6876   22.3578 N   0  0  0  0  0  0  0  0  0  0  0  0
   22.2822  -20.0907   23.4673 C   0  0  0  0  0  0  0  0  0  0  0  0
   22.7343  -18.7273   23.9612 C   0  0  0  0  0  0  0  0  0  0  0  0
   22.4883  -21.7609   21.5722 C   0  0  0  0  0  0  0  0  0  0  0  0
   21.3834  -22.1166   21.8297 O   0  0  0  0  0  0  0  0  0  0  0  0
   23.1970  -22.3911   20.4762 N   0  0  0  0  0  0  0  0  0  0  0  0
   22.5921  -23.4454   19.6948 C   0  0  0  0  0  0  0  0  0  0  0  0
   22.4911  -23.2674   18.3282 C   0  0  0  0  0  0  0  0  0  0  0  0
   21.9273  -24.2607   17.5396 C   0  0  0  0  0  0  0  0  0  0  0  0
   21.4674  -25.4339   18.1276 C   0  0  0  0  0  0  0  0  0  0  0  0
   21.5703  -25.6119   19.5022 C   0  0  0  0  0  0  0  0  0  0  0  0
   22.1332  -24.6177   20.2868 C   0  0  0  0  0  0  0  0  0  0  0  0
  1  2  1  0  0  0  0
  2  3  2  0  0  0  0
  2  4  1  0  0  0  0
  4  5  1  0  0  0  0
  4  9  1  0  0  0  0
  5  6  1  0  0  0  0
  6  7  1  0  0  0  0
  7  8  1  0  0  0  0
  8  9  1  0  0  0  0
  7 10  1  0  0  0  0
 10 11  2  0  0  0  0
 10 12  1  0  0  0  0
 12 13  1  0  0  0  0
 13 14  4  0  0  0  0
 13 18  4  0  0  0  0
 14 15  4  0  0  0  0
 15 16  4  0  0  0  0
 16 17  4  0  0  0  0
 17 18  4  0  0  0  0
M  END
$$$$
